/*--------------------------------*- C++ -*----------------------------------*
| =========                |                                                 |
| \      /  F ield         | OpenFOAM: The Open Source CFD Toolbox           |
|  \    /   O peration     | Version:  v1806                                 |
|   \  /    A nd           | Web:      www.OpenFOAM.com                      |
|    \/     M anipulation  |                                                 |
\*---------------------------------------------------------------------------*/
FoamFile
{
    version     2.0;
    format      ascii;
    class       dictionary;
    object      blockMeshDict;
}
// * * * * * * * * * * * * * * * * * * * * * * * * * * * * * * * * * * * * * //

scale   1;

vertices
(
    (-0.3333333333333333 -0.3333333333333333 0.0)
    (0.3333333333333333 -0.3333333333333333 0.0)
    (0.3333333333333333 0.3333333333333333 0.0)
    (-0.3333333333333333 0.3333333333333333 0.0)
    (-0.7071067811865475 -0.7071067811865475 0.0)
    (0.7071067811865475 -0.7071067811865475 0.0)
    (0.7071067811865475 0.7071067811865475 0.0)
    (-0.7071067811865475 0.7071067811865475 0.0)
    (-2.1213203435596424 -2.1213203435596424 0.0)
    (2.1213203435596424 -2.1213203435596424 0.0)
    (2.1213203435596424 2.1213203435596424 0.0)
    (-2.1213203435596424 2.1213203435596424 0.0)
    (-0.3333333333333333 -0.3333333333333333 0.5)
    (0.3333333333333333 -0.3333333333333333 0.5)
    (0.3333333333333333 0.3333333333333333 0.5)
    (-0.3333333333333333 0.3333333333333333 0.5)
    (-0.7071067811865475 -0.7071067811865475 0.5)
    (0.7071067811865475 -0.7071067811865475 0.5)
    (0.7071067811865475 0.7071067811865475 0.5)
    (-0.7071067811865475 0.7071067811865475 0.5)
    (-2.1213203435596424 -2.1213203435596424 0.5)
    (2.1213203435596424 -2.1213203435596424 0.5)
    (2.1213203435596424 2.1213203435596424 0.5)
    (-2.1213203435596424 2.1213203435596424 0.5)
    (-0.3333333333333333 -0.3333333333333333 2.0)
    (0.3333333333333333 -0.3333333333333333 2.0)
    (0.3333333333333333 0.3333333333333333 2.0)
    (-0.3333333333333333 0.3333333333333333 2.0)
    (-0.7071067811865475 -0.7071067811865475 2.0)
    (0.7071067811865475 -0.7071067811865475 2.0)
    (0.7071067811865475 0.7071067811865475 2.0)
    (-0.7071067811865475 0.7071067811865475 2.0)
    (-2.1213203435596424 -2.1213203435596424 2.0)
    (2.1213203435596424 -2.1213203435596424 2.0)
    (2.1213203435596424 2.1213203435596424 2.0)
    (-2.1213203435596424 2.1213203435596424 2.0)
    (-0.3333333333333333 -0.3333333333333333 5.0)
    (0.3333333333333333 -0.3333333333333333 5.0)
    (0.3333333333333333 0.3333333333333333 5.0)
    (-0.3333333333333333 0.3333333333333333 5.0)
    (-0.7071067811865475 -0.7071067811865475 5.0)
    (0.7071067811865475 -0.7071067811865475 5.0)
    (0.7071067811865475 0.7071067811865475 5.0)
    (-0.7071067811865475 0.7071067811865475 5.0)
    (-2.1213203435596424 -2.1213203435596424 5.0)
    (2.1213203435596424 -2.1213203435596424 5.0)
    (2.1213203435596424 2.1213203435596424 5.0)
    (-2.1213203435596424 2.1213203435596424 5.0)
);

blocks
(
hex (0 1 2 3 12 13 14 15)
(10 10 10)
simpleGrading (1 1 1)
hex (4 5 1 0 16 17 13 12)
(10 10 10)
simpleGrading (1 1 1)
hex (1 5 6 2 13 17 18 14)
(10 10 10)
simpleGrading (1 1 1)
hex (3 2 6 7 15 14 18 19)
(10 10 10)
simpleGrading (1 1 1)
hex (4 0 3 7 16 12 15 19)
(10 10 10)
simpleGrading (1 1 1)
hex (8 9 5 4 20 21 17 16)
(10 10 10)
simpleGrading (1 1 1)
hex (5 9 10 6 17 21 22 18)
(10 10 10)
simpleGrading (1 1 1)
hex (7 6 10 11 19 18 22 23)
(10 10 10)
simpleGrading (1 1 1)
hex (8 4 7 11 20 16 19 23)
(10 10 10)
simpleGrading (1 1 1)
hex (12 13 14 15 24 25 26 27)
(10 10 10)
simpleGrading (1 1 1)
hex (16 17 13 12 28 29 25 24)
(10 10 10)
simpleGrading (1 1 1)
hex (13 17 18 14 25 29 30 26)
(10 10 10)
simpleGrading (1 1 1)
hex (15 14 18 19 27 26 30 31)
(10 10 10)
simpleGrading (1 1 1)
hex (16 12 15 19 28 24 27 31)
(10 10 10)
simpleGrading (1 1 1)
hex (20 21 17 16 32 33 29 28)
(10 10 10)
simpleGrading (1 1 1)
hex (17 21 22 18 29 33 34 30)
(10 10 10)
simpleGrading (1 1 1)
hex (19 18 22 23 31 30 34 35)
(10 10 10)
simpleGrading (1 1 1)
hex (20 16 19 23 32 28 31 35)
(10 10 10)
simpleGrading (1 1 1)
hex (24 25 26 27 36 37 38 39)
(10 10 10)
simpleGrading (1 1 1)
hex (28 29 25 24 40 41 37 36)
(10 10 10)
simpleGrading (1 1 1)
hex (25 29 30 26 37 41 42 38)
(10 10 10)
simpleGrading (1 1 1)
hex (27 26 30 31 39 38 42 43)
(10 10 10)
simpleGrading (1 1 1)
hex (28 24 27 31 40 36 39 43)
(10 10 10)
simpleGrading (1 1 1)
hex (32 33 29 28 44 45 41 40)
(10 10 10)
simpleGrading (1 1 1)
hex (29 33 34 30 41 45 46 42)
(10 10 10)
simpleGrading (1 1 1)
hex (31 30 34 35 43 42 46 47)
(10 10 10)
simpleGrading (1 1 1)
hex (32 28 31 35 44 40 43 47)
(10 10 10)
simpleGrading (1 1 1)
);

edges
(
    arc 4 5 (0.000000 -1.000000 0.000000)
    arc 5 6 (1.000000 0.000000 0.000000)
    arc 6 7 (0.000000 1.000000 0.000000)
    arc 7 4 (-1.000000 0.000000 0.000000)
    arc 8 9 (0.000000 -3.000000 0.000000)
    arc 9 10 (3.000000 0.000000 0.000000)
    arc 10 11 (0.000000 3.000000 0.000000)
    arc 11 8 (-3.000000 0.000000 0.000000)
    arc 16 17 (0.000000 -1.000000 0.500000)
    arc 17 18 (1.000000 0.000000 0.500000)
    arc 18 19 (0.000000 1.000000 0.500000)
    arc 19 16 (-1.000000 0.000000 0.500000)
    arc 20 21 (0.000000 -3.000000 0.500000)
    arc 21 22 (3.000000 0.000000 0.500000)
    arc 22 23 (0.000000 3.000000 0.500000)
    arc 23 20 (-3.000000 0.000000 0.500000)
    arc 28 29 (0.000000 -1.000000 2.000000)
    arc 29 30 (1.000000 0.000000 2.000000)
    arc 30 31 (0.000000 1.000000 2.000000)
    arc 31 28 (-1.000000 0.000000 2.000000)
    arc 32 33 (0.000000 -3.000000 2.000000)
    arc 33 34 (3.000000 0.000000 2.000000)
    arc 34 35 (0.000000 3.000000 2.000000)
    arc 35 32 (-3.000000 0.000000 2.000000)
    arc 40 41 (0.000000 -1.000000 5.000000)
    arc 41 42 (1.000000 0.000000 5.000000)
    arc 42 43 (0.000000 1.000000 5.000000)
    arc 43 40 (-1.000000 0.000000 5.000000)
    arc 44 45 (0.000000 -3.000000 5.000000)
    arc 45 46 (3.000000 0.000000 5.000000)
    arc 46 47 (0.000000 3.000000 5.000000)
    arc 47 44 (-3.000000 0.000000 5.000000)
);

boundary
(
);
